35
CONF3
C -4.0724306768 0.3582483376 -1.7438382965
C -3.0160067795 1.0082785713 -0.8565961762
N -2.3148460372 0.0088078638 -0.0388655481
C -3.1496997055 -0.8512927890 0.8166270375
C -4.0574458093 -0.0311864017 1.7283803231
C -0.9620664443 -0.0663977740 -0.0038973584
C -0.2598146209 -1.2981494718 0.1167957413
C 1.1321637926 -1.3317825758 0.1994375950
C 1.8968456946 -0.2061982277 0.0256914183
C 1.2806401279 1.0642655566 -0.1975175599
C -0.1453211379 1.1021504084 -0.0843001709
N -0.7349862879 2.3807087928 0.2250071407
O -0.3065862377 3.3918062465 -0.3594099717
O -1.6058911512 2.4496207501 1.0938697472
N 2.0214331513 2.1534550469 -0.4203901516
C 3.3859982097 -0.3334943410 0.0072351710
F 3.8014973042 -1.5943512213 0.2246972570
F 3.9247217272 0.0601651212 -1.1822295226
F 3.9829633129 0.4446579674 0.9580130159
N -0.8771886381 -2.5808167171 -0.1059453339
O -0.3431152484 -3.5813380247 0.3963942663
O -1.8763395186 -2.6551496353 -0.8294699992
H -4.4923574764 1.1296822125 -2.3958335749
H -3.6330156660 -0.4235774182 -2.3701364115
H -4.8934609433 -0.0726014953 -1.1654958481
H -3.4724805349 1.7807816909 -0.2260702304
H -2.2764809441 1.4969288494 -1.4965458361
H -3.7441437358 -1.5385274535 0.2057067784
H -2.4857740246 -1.4512238735 1.4420144406
H -3.4785768703 0.6619634340 2.3449930022
H -4.8084807974 0.5339413828 1.1710304694
H -4.5856685403 -0.7239784358 2.3901541146
H 1.6122326633 -2.2965800180 0.2962696916
H 1.5693696155 3.0348782694 -0.6137045153
H 3.0242750116 2.1378008605 -0.3291767159
35
CONF1
C -2.7242465685 -1.0388066640 2.1134148761
C -3.2978661928 -0.6543795560 0.7585840977
N -2.3789909972 0.1243492021 -0.0910177939
C -3.0225405040 1.1590680693 -0.9120030539
C -4.0337213719 0.5417252241 -1.8728138480
C -1.0291451458 0.0018187814 -0.0335487110
C -0.3553899337 -1.2457300344 0.0412296851
C 1.0372811765 -1.3115340055 0.1135230008
C 1.8234133529 -0.1956502890 -0.0145429827
C 1.2341449274 1.1000414032 -0.1579665347
C -0.1892847123 1.1577285030 -0.0414564199
N -0.7623515943 2.4236274907 0.3427028134
O -1.6545217230 2.4529235937 1.1930645921
O -0.2987286939 3.4631056547 -0.1589279393
N 1.9993962319 2.1840002510 -0.3149343926
C 3.3097691289 -0.3541824933 -0.0617697148
F 3.6994320445 -1.6350238141 0.0684742261
F 3.8390045887 0.1026148293 -1.2322639869
F 3.9375858261 0.3476518884 0.9276910522
N -1.0071153352 -2.5071103384 -0.1937233440
O -2.0288054190 -2.5433598551 -0.8884724556
O -0.4823640451 -3.5308186008 0.2720500416
H -2.3109689792 -0.1625849738 2.6229469702
H -3.5390101687 -1.4399932423 2.7228549483
H -1.9497318878 -1.8077157259 2.0658606090
H -4.1545554229 0.0084166072 0.9232416146
H -3.6765599160 -1.5387068859 0.2319110015
H -3.5140262232 1.9006169768 -0.2680881203
H -2.2532742227 1.6704451586 -1.4964363006
H -3.5546718654 -0.1965964341 -2.5225091832
H -4.8627264111 0.0629934198 -1.3456912232
H -4.4488635107 1.3382193990 -2.4976090874
H 1.4976354132 -2.2890605843 0.1665110764
H 1.5670533229 3.0864584082 -0.4461621967
H 3.0012710628 2.1394712829 -0.2227653478
35
CONF2
C -4.1319327748 -0.1768516415 -1.6208033582
C -3.2567112790 -0.9861927202 -0.6669506496
N -2.3933359564 -0.1163342178 0.1485491931
C -3.1068181541 0.8588138853 0.9907889019
C -2.4116106928 1.1621775360 2.3108183657
C -1.0422508015 -0.1516069979 0.0252456498
C -0.3029290342 -1.3628976249 -0.0935768218
C 1.0849963389 -1.3487631227 -0.2329620441
C 1.8162984698 -0.1925089389 -0.1250890483
C 1.1646949483 1.0625323552 0.0766702771
C -0.2646839105 1.0434953956 0.0134040401
N -0.9143112118 2.2846353021 -0.3230784583
O -1.8136195900 2.2846974503 -1.1662102790
O -0.5101023517 3.3341489688 0.2086676672
N 1.8696052517 2.1857484436 0.2375982815
C 3.3088523031 -0.2690872867 -0.1563978474
F 3.7598373642 -1.5195776111 -0.3615736224
F 3.8456260677 0.5077516223 -1.1433251808
F 3.8734728849 0.1690825500 1.0052036631
N -0.8633293877 -2.6646999350 0.1715519551
O -0.2974783631 -3.6538631976 -0.3178595626
O -1.8467697506 -2.7646691512 0.9132575114
H -4.8109634971 0.4962948783 -1.0916146083
H -3.5219811283 0.4082556926 -2.3137327451
H -4.7401827562 -0.8769355302 -2.2014703892
H -2.6292860164 -1.6512586902 -1.2622994121
H -3.8804942548 -1.6014380357 -0.0083531238
H -3.3417807828 1.7833454327 0.4470297894
H -4.0674467273 0.3817026167 1.2103113630
H -3.0889494241 1.7702202235 2.9171523290
H -2.1948184856 0.2391302420 2.8566052136
H -1.4819069524 1.7244037895 2.2002240738
H 1.5959602102 -2.2981216127 -0.3220089324
H 1.3897947469 3.0554569149 0.4160811383
H 2.8678585127 2.2067356985 0.1057064264
35
CONF8
C -2.0522227396 0.9103246087 2.6499610614
C -2.8293838115 0.8641409594 1.3384202859
N -2.2650203663 -0.1319374318 0.3914133903
C -3.0274974210 -1.4013788725 0.3902769548
C -4.3591217599 -1.3142099406 -0.3420689424
C -1.0659552371 -0.0035442244 -0.1538093801
C -0.3595799757 -1.0702420285 -0.8316611674
C 1.0013677508 -1.2193426751 -0.5792305804
C 1.7221336137 -0.2799222145 0.1214193500
C 1.1528564857 1.0086750313 0.3823223138
C -0.2352870313 1.1709923676 0.0858035803
N -0.7822889830 2.4427571470 -0.1321401766
O -0.2324969494 3.4594914432 0.3495356232
O -1.7994349204 2.5395306589 -0.8482172848
N 1.9067573007 2.0152732898 0.8294661190
C 3.1511639692 -0.5508595398 0.4490268534
F 3.4247858078 -0.3334135217 1.7668869489
F 3.5092705003 -1.8204776555 0.1789785022
F 4.0188328752 0.2520291527 -0.2411467825
N -0.9453814576 -1.8632136405 -1.8412935770
O -0.3265741634 -2.8485446290 -2.2834731775
O -2.0500515089 -1.5149216816 -2.2990936743
H -2.5710774666 1.5957605490 3.3258721420
H -2.0257181238 -0.0792926079 3.1153318275
H -1.0283827498 1.2698538727 2.5237551141
H -2.9042728131 1.8432400856 0.8661439849
H -3.8509378697 0.5400030294 1.5372253731
H -2.4044148853 -2.2027700737 0.0006528718
H -3.2038820079 -1.6242520143 1.4497069685
H -4.2316301695 -1.0182845740 -1.3839890688
H -4.8253114251 -2.3032948923 -0.3168293704
H -5.0407980165 -0.6116363191 0.1442934899
H 1.4906236412 -2.1044725949 -0.9672754765
H 1.4766733448 2.9207872620 0.9626912363
H 2.9090730621 1.9336088727 0.8937907366
35
CONF10
C -3.3794037966 1.9273944778 -1.9335613230
C -2.6902764883 1.6035896054 -0.6172319193
N -2.1593557987 0.2224341549 -0.5308719665
C -3.0009144459 -0.8134078346 -1.1640475884
C -4.3233678543 -1.0218597130 -0.4383071026
C -0.9948763699 -0.0358232755 0.0456022295
C -0.3236250076 -1.3198266037 -0.0008701978
C 1.0446274271 -1.3266114366 -0.2576185053
C 1.7975340296 -0.1739789694 -0.2394302589
C 1.2486309344 1.0263679712 0.3183290153
C -0.1544350565 1.0261739446 0.5880198363
N -0.7171615987 1.9019371398 1.5306246223
O -1.8095927558 1.5947536627 2.0465571339
O -0.1153573783 2.9479616615 1.8644799538
N 2.0300492016 2.0673258019 0.6146837702
C 3.2352965404 -0.2322532623 -0.6284722693
F 4.0850535043 -0.0045308879 0.4214212048
F 3.5818871926 -1.4254626078 -1.1468442998
F 3.5501460139 0.7111597511 -1.5613695958
N -0.9399684067 -2.5319350849 0.3737003337
O -2.0358149174 -2.4775407205 0.9649744243
O -0.3550499983 -3.6102428630 0.1616299262
H -3.6041814484 2.9975701180 -1.9095107032
H -2.7256895173 1.7414384117 -2.7902426474
H -4.3228478829 1.3970056100 -2.0740556179
H -3.3682454628 1.7686036738 0.2276125610
H -1.8434659013 2.2827791583 -0.5043293969
H -3.1854827817 -0.4725456312 -2.1858872474
H -2.4361328372 -1.7366834934 -1.2490963622
H -4.9408695046 -0.1202648779 -0.4667846540
H -4.8701265422 -1.8219190844 -0.9450775022
H -4.1713382510 -1.3112795085 0.6025658611
H 1.5152668978 -2.2828765814 -0.4522994181
H 1.6138824100 2.8716798307 1.0647129949
H 3.0340528835 2.0040339993 0.5566854152
