20
CONF3
C -1.6264329319 1.6412843571 -1.3761638029
C -0.8583640338 0.7243985997 -0.4421415040
H -0.4631933676 -0.1445929951 -0.9779510068
C 0.2676830152 1.4424493888 0.2943458930
C 1.0912313418 0.5296367340 1.1889826516
O 1.6783245693 -0.5726995013 0.4586898771
N 2.8687855137 -0.2194878767 -0.2844077514
O 3.2860778128 0.9057162379 -0.1644419629
O 3.2873383701 -1.1374284351 -0.9275276681
O -1.7271955859 0.2455143240 0.6301911393
N -2.5790074681 -0.8634503999 0.2755118395
O -3.2853973036 -1.1954348045 1.1843168306
O -2.4830935720 -1.3084670778 -0.8401008001
H -0.9566661656 2.0183449874 -2.1549768701
H -2.0330610359 2.4938936302 -0.8241208485
H -2.4449146804 1.1082780629 -1.8643478115
H 0.9127238779 1.9224411900 -0.4486950316
H -0.1541727575 2.2427186508 0.9149372746
H 1.8702569827 1.0842911447 1.7189548978
H 0.4577303455 0.0147434272 1.9165495983
