14
CONF6
C -0.4539408749 -0.2055156777 -1.0171248626
C 0.6165583722 -1.2530683379 -0.8575053833
O 1.4011114570 -1.0704915857 0.3501111697
N 2.4099484105 -0.0706054537 0.2519512776
O 2.5515364537 0.4987466700 -0.8006187019
O 3.0159535095 0.0682610204 1.2840296902
O -1.3579626690 -0.4066278028 0.1082872450
N -2.4438964497 0.4909180585 0.1287149590
O -2.5337615666 1.2970143853 -0.7656115129
O -3.1704877225 0.3218408586 1.0773787438
H -0.9872424759 -0.3802293445 -1.9566629455
H -0.0582024727 0.8125439291 -0.9902623954
H 1.2618192605 -1.2647287378 -1.7388844457
H 0.1842071134 -2.2460760672 -0.7128132915
14
CONF8
C -0.7547157414 -1.3812695399 0.4134322589
C 0.4700738384 -0.9603127310 -0.3558698601
O 1.2801614331 -0.2076127722 0.5930990425
N 2.4824767197 0.2847575673 0.0451986914
O 3.1296485611 0.9221837074 0.8397920235
O 2.7299784897 0.0268627494 -1.1077140346
O -1.5575752442 -0.2516995023 0.8444493970
N -2.4004820274 0.2937856465 -0.1670387431
O -2.4037066827 -0.2292852879 -1.2523935424
O -3.0263172949 1.2450812388 0.2262947397
H -0.4880113208 -1.8589364007 1.3593839267
H -1.3512963370 -2.0737827816 -0.1846423904
H 0.2321645565 -0.3286622888 -1.2150820718
H 1.0136318745 -1.8530117598 -0.6804740379
14
CONF1
C -0.5673914950 -1.5339650432 0.4724419965
C 0.5477427529 -1.6161601286 -0.5427466651
O 1.0269384647 -0.3159528278 -0.9759146268
N 1.8465922520 0.3552704319 -0.0287742393
O 2.1479100864 1.4648578298 -0.3891063873
O 2.1417271781 -0.2263300808 0.9846383969
O -1.7353002669 -0.8706029022 -0.0808275774
N -1.7830443757 0.5378464010 0.1259895896
O -0.8964373981 1.0636478396 0.7511216623
O -2.7616302173 1.0339090411 -0.3714687576
H -0.2777007962 -1.0658894024 1.4140353296
H -0.9236705427 -2.5481694127 0.6746164338
H 0.1888778662 -2.0489186613 -1.4796012077
H 1.3706514745 -2.2221918329 -0.1540268037
14
CONF3
C -0.4514528472 -0.7722008256 -0.8268125649
C 0.4217955495 -1.0831018762 0.3646548210
O 1.2954051092 0.0258767695 0.7071623633
N 2.4560887716 0.1367811536 -0.1085562460
O 2.6310837244 -0.6876983022 -0.9704206987
O 3.1389009422 1.0824714437 0.1941820479
O -1.2884402273 0.3937559619 -0.6020680212
N -2.4524472455 0.1440700394 0.1774703116
O -2.6616445228 -0.9832688351 0.5495871224
O -3.1017164682 1.1425459300 0.3616547855
H -1.0617826876 -1.6411035579 -1.0866396463
H 0.1338556792 -0.4743742811 -1.6996606459
H 1.0040741268 -1.9898293060 0.1809323018
H -0.1601125113 -1.2124284474 1.2799416188
