27
CONF17
C 5.0586635727 0.2184824046 -0.1064174963
C 3.7308235378 -0.5108428071 -0.2916693594
C 2.5277274416 0.3475739302 0.0942420634
C 1.1919526946 -0.3699908177 -0.0885485087
C -0.0085729093 0.4852387490 0.3105000338
C -1.3446494637 -0.2337044177 0.1318056083
C -2.5369222275 0.6235307780 0.5536197934
C -3.8768162087 -0.0836878348 0.4232579649
O -4.2262571880 -0.3878388354 -0.9432027774
H 5.9081424306 -0.4148637205 -0.3826941019
H 5.1952227741 0.5245019309 0.9371313601
H 5.0996660365 1.1219436907 -0.7255809466
H 3.7270549905 -1.4282545577 0.3119630969
H 3.6270795557 -0.8280111624 -1.3378494973
H 2.6304242685 0.6627947738 1.1423290574
H 2.5317344927 1.2678665648 -0.5071299292
H 1.1922820031 -1.2939106787 0.5070047437
H 1.0859483466 -0.6780356973 -1.1382791024
H 0.0982160688 0.7943715043 1.3597575438
H -0.0121245938 1.4085503337 -0.2858161434
H -1.3418572155 -1.1623313428 0.7201398613
H -1.4479551654 -0.5296857430 -0.9215070410
H -2.5606045462 1.5499740737 -0.0356250342
H -2.4184949771 0.9178985719 1.6053848748
H -3.8787135841 -1.0060628462 1.0227919297
H -4.6810037187 0.5594828219 0.7937492666
H -3.5952212703 -1.0418466511 -1.2679512393
